<?xml version="1.0" encoding="ISO-8859-1"?>
<febio_spec version="4.0">
	<Module type="solid"/>
	<Control>
		<analysis>STATIC</analysis>
		<time_steps>10</time_steps>
		<step_size>0.1</step_size>
		<plot_zero_state>0</plot_zero_state>
		<plot_range>0,-1</plot_range>
		<plot_level>PLOT_MAJOR_ITRS</plot_level>
		<output_level>OUTPUT_MAJOR_ITRS</output_level>
		<plot_stride>1</plot_stride>
		<output_stride>1</output_stride>
		<adaptor_re_solve>1</adaptor_re_solve>
		<time_stepper type="default">
			<max_retries>5</max_retries>
			<opt_iter>11</opt_iter>
			<dtmin>0</dtmin>
			<dtmax>0.1</dtmax>
			<aggressiveness>0</aggressiveness>
			<cutback>0.5</cutback>
			<dtforce>0</dtforce>
		</time_stepper>
		<solver type="solid">
			<symmetric_stiffness>symmetric</symmetric_stiffness>
			<equation_scheme>staggered</equation_scheme>
			<equation_order>default</equation_order>
			<optimize_bw>0</optimize_bw>
			<lstol>0.9</lstol>
			<lsmin>0.01</lsmin>
			<lsiter>5</lsiter>
			<ls_check_jacobians>0</ls_check_jacobians>
			<max_refs>15</max_refs>
			<check_zero_diagonal>0</check_zero_diagonal>
			<zero_diagonal_tol>0</zero_diagonal_tol>
			<force_partition>0</force_partition>
			<reform_each_time_step>1</reform_each_time_step>
			<reform_augment>0</reform_augment>
			<diverge_reform>1</diverge_reform>
			<min_residual>1e-20</min_residual>
			<max_residual>0</max_residual>
			<dtol>0.001</dtol>
			<etol>0.01</etol>
			<rtol>0</rtol>
			<rhoi>-2</rhoi>
			<alpha>1</alpha>
			<beta>0.25</beta>
			<gamma>0.5</gamma>
			<logSolve>0</logSolve>
			<arc_length>0</arc_length>
			<arc_length_scale>0</arc_length_scale>
			<qn_method type="BFGS">
				<max_ups>10</max_ups>
				<max_buffer_size>0</max_buffer_size>
				<cycle_buffer>1</cycle_buffer>
				<cmax>100000</cmax>
			</qn_method>
		</solver>
	</Control>
	<Globals>
		<Constants>
			<T>0</T>
			<P>0</P>
			<R>8.31446</R>
			<Fc>96485.3</Fc>
		</Constants>
	</Globals>
	<Material>
		<material id="1" name="Vaginal Wall Material" type="neo-Hookean">
			<density>1</density>
			<E>0.2</E>
			<v>0.1</v>
		</material>
		<material id="2" name="Perineal Complex Material" type="neo-Hookean">
			<density>1</density>
			<E>0.01</E>
			<v>0.1</v>
		</material>
		<material id="3" name="Levator Ani Material" type="neo-Hookean">
			<density>1</density>
			<E>0.1</E>
			<v>0.1</v>
		</material>
	</Material>
	<Mesh>
		<Nodes name="Levator Ani Side 2">
			<node id="1">1.25,0,0</node>
			<node id="2">1.75,0,0</node>
			<node id="3">0,1.25,0</node>
			<node id="4">0,1.75,0</node>
			<node id="5">-1.25,0,0</node>
			<node id="6">-1.75,0,0</node>
			<node id="7">0,-1.25,0</node>
			<node id="8">0,-1.75,0</node>
			<node id="9">1.25,0,4</node>
			<node id="10">1.75,0,4</node>
			<node id="11">0,1.25,4</node>
			<node id="12">0,1.75,4</node>
			<node id="13">-1.25,0,4</node>
			<node id="14">-1.75,0,4</node>
			<node id="15">0,-1.25,4</node>
			<node id="16">0,-1.75,4</node>
			<node id="17">1.375,0,0</node>
			<node id="18">1.5,0,0</node>
			<node id="19">1.625,0,0</node>
			<node id="20">1.75,0,0.266666667</node>
<!-- ... 8225 like lines cut -->
		</Nodes>
		<Elements type="hex8" name="Part3">
			<elem id="1">1,17,657,111,50,297,1689,515</elem>
			<elem id="2">17,18,658,657,297,298,1690,1689</elem>
			<elem id="3">18,19,659,658,298,299,1691,1690</elem>
			<elem id="4">19,2,51,659,299,20,339,1691</elem>
			<elem id="5">111,657,654,110,515,1689,1692,514</elem>
			<elem id="6">657,658,655,654,1689,1690,1693,1692</elem>
			<elem id="7">658,659,656,655,1690,1691,1694,1693</elem>
			<elem id="8">659,51,52,656,1691,339,340,1694</elem>
			<elem id="9">110,654,651,109,514,1692,1695,513</elem>
			<elem id="10">654,655,652,651,1692,1693,1696,1695</elem>
			<elem id="11">655,656,653,652,1693,1694,1697,1696</elem>
			<elem id="12">656,52,53,653,1694,340,341,1697</elem>
			<elem id="13">109,651,648,108,513,1695,1698,512</elem>
			<elem id="14">651,652,649,648,1695,1696,1699,1698</elem>
			<elem id="15">652,653,650,649,1696,1697,1700,1699</elem>
			<elem id="16">653,53,54,650,1697,341,342,1700</elem>
			<elem id="17">108,648,645,107,512,1698,1701,511</elem>
			<elem id="18">648,649,646,645,1698,1699,1702,1701</elem>
			<elem id="19">649,650,647,646,1699,1700,1703,1702</elem>
			<elem id="20">650,54,55,647,1700,342,343,1703</elem>
<!-- ... 2380 like lines cut -->
		</Elements>
		<Elements type="hex8" name="Part1">
			<elem id="2401">3201,3217,3633,3283,3236,3441,4245,3554</elem>
			<elem id="2402">3217,3218,3634,3633,3441,3442,4246,4245</elem>
			<elem id="2403">3218,3219,3635,3634,3442,3443,4247,4246</elem>
			<elem id="2404">3219,3202,3237,3635,3443,3220,3462,4247</elem>
			<elem id="2405">3283,3633,3630,3282,3554,4245,4248,3553</elem>
			<elem id="2406">3633,3634,3631,3630,4245,4246,4249,4248</elem>
			<elem id="2407">3634,3635,3632,3631,4246,4247,4250,4249</elem>
			<elem id="2408">3635,3237,3238,3632,4247,3462,3463,4250</elem>
			<elem id="2409">3282,3630,3627,3281,3553,4248,4251,3552</elem>
			<elem id="2410">3630,3631,3628,3627,4248,4249,4252,4251</elem>
			<elem id="2411">3631,3632,3629,3628,4249,4250,4253,4252</elem>
			<elem id="2412">3632,3238,3239,3629,4250,3463,3464,4253</elem>
			<elem id="2413">3281,3627,3624,3280,3552,4251,4254,3551</elem>
			<elem id="2414">3627,3628,3625,3624,4251,4252,4255,4254</elem>
			<elem id="2415">3628,3629,3626,3625,4252,4253,4256,4255</elem>
			<elem id="2416">3629,3239,3240,3626,4253,3464,3465,4256</elem>
			<elem id="2417">3280,3624,3621,3279,3551,4254,4257,3550</elem>
			<elem id="2418">3624,3625,3622,3621,4254,4255,4258,4257</elem>
			<elem id="2419">3625,3626,3623,3622,4255,4256,4259,4258</elem>
			<elem id="2420">3626,3240,3241,3623,4256,3465,3466,4259</elem>
<!-- ... 1260 like lines cut -->
		</Elements>
		<Elements type="hex8" name="Part7">
			<elem id="3681">5001,5009,5471,5113,5056,5117,5531,5416</elem>
			<elem id="3682">5009,5010,5472,5471,5117,5118,5532,5531</elem>
			<elem id="3683">5010,5011,5473,5472,5118,5119,5533,5532</elem>
			<elem id="3684">5011,5012,5474,5473,5119,5120,5534,5533</elem>
			<elem id="3685">5012,5013,5475,5474,5120,5121,5535,5534</elem>
			<elem id="3686">5013,5014,5476,5475,5121,5122,5536,5535</elem>
			<elem id="3687">5014,5015,5477,5476,5122,5123,5537,5536</elem>
			<elem id="3688">5015,5016,5478,5477,5123,5124,5538,5537</elem>
			<elem id="3689">5016,5017,5479,5478,5124,5125,5539,5538</elem>
			<elem id="3690">5017,5018,5480,5479,5125,5126,5540,5539</elem>
			<elem id="3691">5018,5019,5481,5480,5126,5127,5541,5540</elem>
			<elem id="3692">5019,5020,5482,5481,5127,5128,5542,5541</elem>
			<elem id="3693">5020,5021,5483,5482,5128,5129,5543,5542</elem>
			<elem id="3694">5021,5022,5484,5483,5129,5130,5544,5543</elem>
			<elem id="3695">5022,5023,5485,5484,5130,5131,5545,5544</elem>
			<elem id="3696">5023,5002,5057,5485,5131,5024,5252,5545</elem>
			<elem id="3697">5113,5471,5456,5112,5416,5531,5546,5415</elem>
			<elem id="3698">5471,5472,5457,5456,5531,5532,5547,5546</elem>
			<elem id="3699">5472,5473,5458,5457,5532,5533,5548,5547</elem>
			<elem id="3700">5473,5474,5459,5458,5533,5534,5549,5548</elem>
<!-- ... 620 like lines cut -->
		</Elements>
		<Elements type="hex8" name="Part10">
			<elem id="4321">5936,5944,6518,6048,5967,6068,6578,6311</elem>
			<elem id="4322">5944,5945,6519,6518,6068,6069,6579,6578</elem>
			<elem id="4323">5945,5946,6520,6519,6069,6070,6580,6579</elem>
			<elem id="4324">5946,5937,5968,6520,6070,5947,6095,6580</elem>
			<elem id="4325">6048,6518,6515,6047,6311,6578,6581,6310</elem>
			<elem id="4326">6518,6519,6516,6515,6578,6579,6582,6581</elem>
			<elem id="4327">6519,6520,6517,6516,6579,6580,6583,6582</elem>
			<elem id="4328">6520,5968,5969,6517,6580,6095,6096,6583</elem>
			<elem id="4329">6047,6515,6512,6046,6310,6581,6584,6309</elem>
			<elem id="4330">6515,6516,6513,6512,6581,6582,6585,6584</elem>
			<elem id="4331">6516,6517,6514,6513,6582,6583,6586,6585</elem>
			<elem id="4332">6517,5969,5970,6514,6583,6096,6097,6586</elem>
			<elem id="4333">6046,6512,6509,6045,6309,6584,6587,6308</elem>
			<elem id="4334">6512,6513,6510,6509,6584,6585,6588,6587</elem>
			<elem id="4335">6513,6514,6511,6510,6585,6586,6589,6588</elem>
			<elem id="4336">6514,5970,5971,6511,6586,6097,6098,6589</elem>
			<elem id="4337">6045,6509,6506,6044,6308,6587,6590,6307</elem>
			<elem id="4338">6509,6510,6507,6506,6587,6588,6591,6590</elem>
			<elem id="4339">6510,6511,6508,6507,6588,6589,6592,6591</elem>
			<elem id="4340">6511,5971,5972,6508,6589,6098,6099,6592</elem>
<!-- ... 780 like lines cut -->
		</Elements>
		<Elements type="hex8" name="Part11">
			<elem id="5121">7091,7099,7673,7203,7122,7223,7733,7466</elem>
			<elem id="5122">7099,7100,7674,7673,7223,7224,7734,7733</elem>
			<elem id="5123">7100,7101,7675,7674,7224,7225,7735,7734</elem>
			<elem id="5124">7101,7092,7123,7675,7225,7102,7250,7735</elem>
			<elem id="5125">7203,7673,7670,7202,7466,7733,7736,7465</elem>
			<elem id="5126">7673,7674,7671,7670,7733,7734,7737,7736</elem>
			<elem id="5127">7674,7675,7672,7671,7734,7735,7738,7737</elem>
			<elem id="5128">7675,7123,7124,7672,7735,7250,7251,7738</elem>
			<elem id="5129">7202,7670,7667,7201,7465,7736,7739,7464</elem>
			<elem id="5130">7670,7671,7668,7667,7736,7737,7740,7739</elem>
			<elem id="5131">7671,7672,7669,7668,7737,7738,7741,7740</elem>
			<elem id="5132">7672,7124,7125,7669,7738,7251,7252,7741</elem>
			<elem id="5133">7201,7667,7664,7200,7464,7739,7742,7463</elem>
			<elem id="5134">7667,7668,7665,7664,7739,7740,7743,7742</elem>
			<elem id="5135">7668,7669,7666,7665,7740,7741,7744,7743</elem>
			<elem id="5136">7669,7125,7126,7666,7741,7252,7253,7744</elem>
			<elem id="5137">7200,7664,7661,7199,7463,7742,7745,7462</elem>
			<elem id="5138">7664,7665,7662,7661,7742,7743,7746,7745</elem>
			<elem id="5139">7665,7666,7663,7662,7743,7744,7747,7746</elem>
			<elem id="5140">7666,7126,7127,7663,7744,7253,7254,7747</elem>
<!-- ... 780 like lines cut -->
		</Elements>
		<NodeSet name="ZeroDisplacement2">
			3204, 3212, 3241, 3242, 3243, 3244, 3245, 3246,
			3247, 3248, 3249, 3250, 3251, 3252, 3253, 3254,
			3255, 3256, 3257, 3293, 3294, 3295, 3296, 3297,
			3298, 3312, 3313, 3314, 3315, 3316, 3317, 3466,
			3467, 3468, 3469, 3470, 3475, 3476, 3477, 3478,
			3479, 3484, 3485, 3486, 3487, 3488, 3493, 3494,
			3495, 3496, 3497, 3502, 3503, 3504, 3505, 3506,
			3511, 3512, 3513, 3514, 3515, 3520, 3521, 3522,
			3523, 3524, 3663, 3664, 3665, 3666, 3667, 3668,
			3672, 3673, 3674, 3675, 3676, 3677, 3681, 3682,
			3683, 3684, 3685, 3686, 3690, 3691, 3692, 3693,
			3694, 3695, 3699, 3700, 3701, 3702, 3703, 3704,
			3708, 3709, 3710, 3711, 3712, 3713, 3717, 3718,
			3719, 3720, 3721, 3722
		</NodeSet>
		<Surface name="ZeroDisplacement1">
			<quad4 id="1">5938,6015,6266,5987</quad4>
			<quad4 id="2">6015,6016,6267,6266</quad4>
			<quad4 id="3">6016,6017,6268,6267</quad4>
			<quad4 id="4">6017,5939,6018,6268</quad4>
			<quad4 id="5">5987,6266,6269,5988</quad4>
			<quad4 id="6">6266,6267,6270,6269</quad4>
			<quad4 id="7">6267,6268,6271,6270</quad4>
			<quad4 id="8">6268,6018,6019,6271</quad4>
			<quad4 id="9">5988,6269,6272,5989</quad4>
			<quad4 id="10">6269,6270,6273,6272</quad4>
			<quad4 id="11">6270,6271,6274,6273</quad4>
			<quad4 id="12">6271,6019,6020,6274</quad4>
			<quad4 id="13">5989,6272,6275,5990</quad4>
			<quad4 id="14">6272,6273,6276,6275</quad4>
			<quad4 id="15">6273,6274,6277,6276</quad4>
			<quad4 id="16">6274,6020,6021,6277</quad4>
			<quad4 id="17">5990,6275,6278,5991</quad4>
			<quad4 id="18">6275,6276,6279,6278</quad4>
			<quad4 id="19">6276,6277,6280,6279</quad4>
			<quad4 id="20">6277,6021,6022,6280</quad4>
<!-- ... 60 like lines cut -->
		</Surface>
		<Surface name="ZeroDisplacement3">
			<quad4 id="1">3209,3229,3636,3284</quad4>
			<quad4 id="2">3229,3228,3637,3636</quad4>
			<quad4 id="3">3228,3227,3638,3637</quad4>
			<quad4 id="4">3227,3210,3261,3638</quad4>
			<quad4 id="5">3284,3636,3639,3285</quad4>
			<quad4 id="6">3636,3637,3640,3639</quad4>
			<quad4 id="7">3637,3638,3641,3640</quad4>
			<quad4 id="8">3638,3261,3260,3641</quad4>
			<quad4 id="9">3285,3639,3642,3286</quad4>
			<quad4 id="10">3639,3640,3643,3642</quad4>
			<quad4 id="11">3640,3641,3644,3643</quad4>
			<quad4 id="12">3641,3260,3259,3644</quad4>
			<quad4 id="13">3286,3642,3645,3287</quad4>
			<quad4 id="14">3642,3643,3646,3645</quad4>
			<quad4 id="15">3643,3644,3647,3646</quad4>
			<quad4 id="16">3644,3259,3258,3647</quad4>
			<quad4 id="17">3287,3645,3648,3288</quad4>
			<quad4 id="18">3645,3646,3649,3648</quad4>
			<quad4 id="19">3646,3647,3650,3649</quad4>
			<quad4 id="20">3647,3258,3257,3650</quad4>
<!-- ... 644 like lines cut -->
		</Surface>
		<Surface name="Pressure1">
			<quad4 id="1">3,103,507,86</quad4>
			<quad4 id="2">103,104,508,507</quad4>
			<quad4 id="3">104,105,509,508</quad4>
			<quad4 id="4">105,106,510,509</quad4>
			<quad4 id="5">106,107,511,510</quad4>
			<quad4 id="6">107,108,512,511</quad4>
			<quad4 id="7">108,109,513,512</quad4>
			<quad4 id="8">109,110,514,513</quad4>
			<quad4 id="9">110,111,515,514</quad4>
			<quad4 id="10">111,1,50,515</quad4>
			<quad4 id="11">86,507,516,87</quad4>
			<quad4 id="12">507,508,517,516</quad4>
			<quad4 id="13">508,509,518,517</quad4>
			<quad4 id="14">509,510,519,518</quad4>
			<quad4 id="15">510,511,520,519</quad4>
			<quad4 id="16">511,512,521,520</quad4>
			<quad4 id="17">512,513,522,521</quad4>
			<quad4 id="18">513,514,523,522</quad4>
			<quad4 id="19">514,515,524,523</quad4>
			<quad4 id="20">515,50,49,524</quad4>
<!-- ... 580 like lines cut -->
		</Surface>
		<Surface name="TiedElastic1Primary">
			<quad4 id="1">5936,5944,6068,5967</quad4>
			<quad4 id="2">5944,5945,6069,6068</quad4>
			<quad4 id="3">5945,5946,6070,6069</quad4>
			<quad4 id="4">5946,5937,5947,6070</quad4>
			<quad4 id="5">5967,6068,6071,5966</quad4>
			<quad4 id="6">6068,6069,6072,6071</quad4>
			<quad4 id="7">6069,6070,6073,6072</quad4>
			<quad4 id="8">6070,5947,5948,6073</quad4>
			<quad4 id="9">5966,6071,6074,5965</quad4>
			<quad4 id="10">6071,6072,6075,6074</quad4>
			<quad4 id="11">6072,6073,6076,6075</quad4>
			<quad4 id="12">6073,5948,5949,6076</quad4>
			<quad4 id="13">5965,6074,6077,5964</quad4>
			<quad4 id="14">6074,6075,6078,6077</quad4>
			<quad4 id="15">6075,6076,6079,6078</quad4>
			<quad4 id="16">6076,5949,5950,6079</quad4>
			<quad4 id="17">5964,6077,6080,5963</quad4>
			<quad4 id="18">6077,6078,6081,6080</quad4>
			<quad4 id="19">6078,6079,6082,6081</quad4>
			<quad4 id="20">6079,5950,5951,6082</quad4>
<!-- ... 60 like lines cut -->
		</Surface>
		<Surface name="TiedElastic1Secondary">
			<quad4 id="1">5002,5057,5252,5024</quad4>
			<quad4 id="2">5057,5058,5253,5252</quad4>
			<quad4 id="3">5058,5059,5254,5253</quad4>
			<quad4 id="4">5059,5003,5060,5254</quad4>
			<quad4 id="5">5024,5252,5255,5025</quad4>
			<quad4 id="6">5252,5253,5256,5255</quad4>
			<quad4 id="7">5253,5254,5257,5256</quad4>
			<quad4 id="8">5254,5060,5061,5257</quad4>
			<quad4 id="9">5025,5255,5258,5026</quad4>
			<quad4 id="10">5255,5256,5259,5258</quad4>
			<quad4 id="11">5256,5257,5260,5259</quad4>
			<quad4 id="12">5257,5061,5062,5260</quad4>
			<quad4 id="13">5026,5258,5261,5027</quad4>
			<quad4 id="14">5258,5259,5262,5261</quad4>
			<quad4 id="15">5259,5260,5263,5262</quad4>
			<quad4 id="16">5260,5062,5063,5263</quad4>
			<quad4 id="17">5027,5261,5264,5028</quad4>
			<quad4 id="18">5261,5262,5265,5264</quad4>
			<quad4 id="19">5262,5263,5266,5265</quad4>
			<quad4 id="20">5263,5063,5064,5266</quad4>
<!-- ... 60 like lines cut -->
		</Surface>
		<Surface name="TiedElastic2Primary">
			<quad4 id="1">2,51,339,20</quad4>
			<quad4 id="2">51,52,340,339</quad4>
			<quad4 id="3">52,53,341,340</quad4>
			<quad4 id="4">53,54,342,341</quad4>
			<quad4 id="5">54,55,343,342</quad4>
			<quad4 id="6">55,56,344,343</quad4>
			<quad4 id="7">56,57,345,344</quad4>
			<quad4 id="8">57,58,346,345</quad4>
			<quad4 id="9">58,59,347,346</quad4>
			<quad4 id="10">59,4,60,347</quad4>
			<quad4 id="11">20,339,348,21</quad4>
			<quad4 id="12">339,340,349,348</quad4>
			<quad4 id="13">340,341,350,349</quad4>
			<quad4 id="14">341,342,351,350</quad4>
			<quad4 id="15">342,343,352,351</quad4>
			<quad4 id="16">343,344,353,352</quad4>
			<quad4 id="17">344,345,354,353</quad4>
			<quad4 id="18">345,346,355,354</quad4>
			<quad4 id="19">346,347,356,355</quad4>
			<quad4 id="20">347,60,61,356</quad4>
<!-- ... 580 like lines cut -->
		</Surface>
		<Surface name="TiedElastic2Secondary">
			<quad4 id="1">3203,3275,3546,3265</quad4>
			<quad4 id="2">3275,3276,3547,3546</quad4>
			<quad4 id="3">3276,3277,3548,3547</quad4>
			<quad4 id="4">3277,3278,3549,3548</quad4>
			<quad4 id="5">3278,3279,3550,3549</quad4>
			<quad4 id="6">3279,3280,3551,3550</quad4>
			<quad4 id="7">3280,3281,3552,3551</quad4>
			<quad4 id="8">3281,3282,3553,3552</quad4>
			<quad4 id="9">3282,3283,3554,3553</quad4>
			<quad4 id="10">3283,3201,3236,3554</quad4>
			<quad4 id="11">3265,3546,3555,3266</quad4>
			<quad4 id="12">3546,3547,3556,3555</quad4>
			<quad4 id="13">3547,3548,3557,3556</quad4>
			<quad4 id="14">3548,3549,3558,3557</quad4>
			<quad4 id="15">3549,3550,3559,3558</quad4>
			<quad4 id="16">3550,3551,3560,3559</quad4>
			<quad4 id="17">3551,3552,3561,3560</quad4>
			<quad4 id="18">3552,3553,3562,3561</quad4>
			<quad4 id="19">3553,3554,3563,3562</quad4>
			<quad4 id="20">3554,3236,3235,3563</quad4>
<!-- ... 460 like lines cut -->
		</Surface>
		<Surface name="SlidingElastic3Primary">
			<quad4 id="1">2,51,339,20</quad4>
			<quad4 id="2">51,52,340,339</quad4>
			<quad4 id="3">52,53,341,340</quad4>
			<quad4 id="4">53,54,342,341</quad4>
			<quad4 id="5">54,55,343,342</quad4>
			<quad4 id="6">55,56,344,343</quad4>
			<quad4 id="7">56,57,345,344</quad4>
			<quad4 id="8">57,58,346,345</quad4>
			<quad4 id="9">58,59,347,346</quad4>
			<quad4 id="10">59,4,60,347</quad4>
			<quad4 id="11">20,339,348,21</quad4>
			<quad4 id="12">339,340,349,348</quad4>
			<quad4 id="13">340,341,350,349</quad4>
			<quad4 id="14">341,342,351,350</quad4>
			<quad4 id="15">342,343,352,351</quad4>
			<quad4 id="16">343,344,353,352</quad4>
			<quad4 id="17">344,345,354,353</quad4>
			<quad4 id="18">345,346,355,354</quad4>
			<quad4 id="19">346,347,356,355</quad4>
			<quad4 id="20">347,60,61,356</quad4>
<!-- ... 280 like lines cut -->
		</Surface>
		<Surface name="SlidingElastic3Secondary">
			<quad4 id="1">5939,6030,6293,6018</quad4>
			<quad4 id="2">6030,6031,6294,6293</quad4>
			<quad4 id="3">6031,6032,6295,6294</quad4>
			<quad4 id="4">6032,6033,6296,6295</quad4>
			<quad4 id="5">6033,6034,6297,6296</quad4>
			<quad4 id="6">6034,6035,6298,6297</quad4>
			<quad4 id="7">6035,6036,6299,6298</quad4>
			<quad4 id="8">6036,6037,6300,6299</quad4>
			<quad4 id="9">6037,6038,6301,6300</quad4>
			<quad4 id="10">6038,6039,6302,6301</quad4>
			<quad4 id="11">6039,6040,6303,6302</quad4>
			<quad4 id="12">6040,6041,6304,6303</quad4>
			<quad4 id="13">6041,6042,6305,6304</quad4>
			<quad4 id="14">6042,6043,6306,6305</quad4>
			<quad4 id="15">6043,6044,6307,6306</quad4>
			<quad4 id="16">6044,6045,6308,6307</quad4>
			<quad4 id="17">6045,6046,6309,6308</quad4>
			<quad4 id="18">6046,6047,6310,6309</quad4>
			<quad4 id="19">6047,6048,6311,6310</quad4>
			<quad4 id="20">6048,5936,5967,6311</quad4>
<!-- ... 380 like lines cut -->
		</Surface>
		<Surface name="SlidingElastic4Primary">
			<quad4 id="1">2,51,339,20</quad4>
			<quad4 id="2">51,52,340,339</quad4>
			<quad4 id="3">52,53,341,340</quad4>
			<quad4 id="4">53,54,342,341</quad4>
			<quad4 id="5">54,55,343,342</quad4>
			<quad4 id="6">55,56,344,343</quad4>
			<quad4 id="7">56,57,345,344</quad4>
			<quad4 id="8">57,58,346,345</quad4>
			<quad4 id="9">58,59,347,346</quad4>
			<quad4 id="10">59,4,60,347</quad4>
			<quad4 id="11">20,339,348,21</quad4>
			<quad4 id="12">339,340,349,348</quad4>
			<quad4 id="13">340,341,350,349</quad4>
			<quad4 id="14">341,342,351,350</quad4>
			<quad4 id="15">342,343,352,351</quad4>
			<quad4 id="16">343,344,353,352</quad4>
			<quad4 id="17">344,345,354,353</quad4>
			<quad4 id="18">345,346,355,354</quad4>
			<quad4 id="19">346,347,356,355</quad4>
			<quad4 id="20">347,60,61,356</quad4>
<!-- ... 280 like lines cut -->
		</Surface>
		<Surface name="SlidingElastic4Secondary">
			<quad4 id="1">3203,3264,3609,3275</quad4>
			<quad4 id="2">3264,3263,3610,3609</quad4>
			<quad4 id="3">3263,3262,3611,3610</quad4>
			<quad4 id="4">3262,3204,3245,3611</quad4>
			<quad4 id="5">3275,3609,3612,3276</quad4>
			<quad4 id="6">3609,3610,3613,3612</quad4>
			<quad4 id="7">3610,3611,3614,3613</quad4>
			<quad4 id="8">3611,3245,3244,3614</quad4>
			<quad4 id="9">3276,3612,3615,3277</quad4>
			<quad4 id="10">3612,3613,3616,3615</quad4>
			<quad4 id="11">3613,3614,3617,3616</quad4>
			<quad4 id="12">3614,3244,3243,3617</quad4>
			<quad4 id="13">3277,3615,3618,3278</quad4>
			<quad4 id="14">3615,3616,3619,3618</quad4>
			<quad4 id="15">3616,3617,3620,3619</quad4>
			<quad4 id="16">3617,3243,3242,3620</quad4>
			<quad4 id="17">3278,3618,3621,3279</quad4>
			<quad4 id="18">3618,3619,3622,3621</quad4>
			<quad4 id="19">3619,3620,3623,3622</quad4>
			<quad4 id="20">3620,3242,3241,3623</quad4>
<!-- ... 60 like lines cut -->
		</Surface>
		<SurfacePair name="Vaginal Wall LA Side">
			<primary>TiedElastic1Primary</primary>
			<secondary>TiedElastic1Secondary</secondary>
		</SurfacePair>
		<SurfacePair name="VW attachment to PC and LA">
			<primary>TiedElastic2Primary</primary>
			<secondary>TiedElastic2Secondary</secondary>
		</SurfacePair>
		<SurfacePair name="SlidingElastic3">
			<primary>SlidingElastic3Primary</primary>
			<secondary>SlidingElastic3Secondary</secondary>
		</SurfacePair>
		<SurfacePair name="SlidingElastic4">
			<primary>SlidingElastic4Primary</primary>
			<secondary>SlidingElastic4Secondary</secondary>
		</SurfacePair>
	</Mesh>
	<MeshDomains>
		<SolidDomain name="Part3" mat="Vaginal Wall Material"/>
		<SolidDomain name="Part1" mat="Perineal Complex Material"/>
		<SolidDomain name="Part7" mat="Levator Ani Material"/>
		<SolidDomain name="Part10" mat="Levator Ani Material"/>
		<SolidDomain name="Part11" mat="Levator Ani Material"/>
	</MeshDomains>
	<Boundary>
		<bc name="LA Top" node_set="@surface:ZeroDisplacement1" type="zero displacement">
			<x_dof>1</x_dof>
			<y_dof>1</y_dof>
			<z_dof>1</z_dof>
		</bc>
		<bc name="PC Top" node_set="ZeroDisplacement2" type="zero displacement">
			<x_dof>1</x_dof>
			<y_dof>1</y_dof>
			<z_dof>1</z_dof>
		</bc>
		<bc name="Keep Planar" node_set="@surface:ZeroDisplacement3" type="zero displacement">
			<x_dof>0</x_dof>
			<y_dof>0</y_dof>
			<z_dof>1</z_dof>
		</bc>
	</Boundary>
	<Loads>
		<surface_load name="Vaginal Wall Pressure" surface="Pressure1" type="pressure">
			<pressure lc="1">0.019</pressure>
			<symmetric_stiffness>1</symmetric_stiffness>
			<linear>0</linear>
			<shell_bottom>0</shell_bottom>
		</surface_load>
	</Loads>
	<Contact>
		<contact name="Vaginal Wall LA Side" surface_pair="Vaginal Wall LA Side" type="tied-elastic">
			<laugon>PENALTY</laugon>
			<tolerance>0.1</tolerance>
			<gaptol>-1</gaptol>
			<penalty>1</penalty>
			<auto_penalty>0</auto_penalty>
			<update_penalty>0</update_penalty>
			<two_pass>0</two_pass>
			<knmult>1</knmult>
			<search_tol>0.01</search_tol>
			<symmetric_stiffness>1</symmetric_stiffness>
			<search_radius>1</search_radius>
			<minaug>0</minaug>
			<maxaug>10</maxaug>
			<flip_primary>0</flip_primary>
			<flip_secondary>0</flip_secondary>
		</contact>
		<contact name="VW attachment to PC and LA" surface_pair="VW attachment to PC and LA" type="tied-elastic">
			<laugon>PENALTY</laugon>
			<tolerance>0.1</tolerance>
			<gaptol>-1</gaptol>
			<penalty>1</penalty>
			<auto_penalty>0</auto_penalty>
			<update_penalty>0</update_penalty>
			<two_pass>0</two_pass>
			<knmult>1</knmult>
			<search_tol>0.01</search_tol>
			<symmetric_stiffness>1</symmetric_stiffness>
			<search_radius>1</search_radius>
			<minaug>0</minaug>
			<maxaug>10</maxaug>
			<flip_primary>0</flip_primary>
			<flip_secondary>0</flip_secondary>
		</contact>
		<contact name="SlidingElastic3" surface_pair="SlidingElastic3" type="sliding-elastic">
			<laugon>PENALTY</laugon>
			<tolerance>0.1</tolerance>
			<gaptol>0</gaptol>
			<penalty>1</penalty>
			<auto_penalty>0</auto_penalty>
			<update_penalty>0</update_penalty>
			<two_pass>0</two_pass>
			<knmult>0</knmult>
			<search_tol>0.01</search_tol>
			<symmetric_stiffness>0</symmetric_stiffness>
			<search_radius>1</search_radius>
			<seg_up>0</seg_up>
			<tension>0</tension>
			<minaug>0</minaug>
			<maxaug>10</maxaug>
			<node_reloc>0</node_reloc>
			<fric_coeff>0</fric_coeff>
			<smooth_aug>0</smooth_aug>
			<flip_primary>0</flip_primary>
			<flip_secondary>0</flip_secondary>
			<shell_bottom_primary>0</shell_bottom_primary>
			<shell_bottom_secondary>0</shell_bottom_secondary>
			<offset>0</offset>
		</contact>
		<contact name="SlidingElastic4" surface_pair="SlidingElastic4" type="sliding-elastic">
			<laugon>PENALTY</laugon>
			<tolerance>0.1</tolerance>
			<gaptol>0</gaptol>
			<penalty>1</penalty>
			<auto_penalty>0</auto_penalty>
			<update_penalty>0</update_penalty>
			<two_pass>0</two_pass>
			<knmult>0</knmult>
			<search_tol>0.01</search_tol>
			<symmetric_stiffness>0</symmetric_stiffness>
			<search_radius>1</search_radius>
			<seg_up>0</seg_up>
			<tension>0</tension>
			<minaug>0</minaug>
			<maxaug>10</maxaug>
			<node_reloc>0</node_reloc>
			<fric_coeff>0</fric_coeff>
			<smooth_aug>0</smooth_aug>
			<flip_primary>0</flip_primary>
			<flip_secondary>0</flip_secondary>
			<shell_bottom_primary>0</shell_bottom_primary>
			<shell_bottom_secondary>0</shell_bottom_secondary>
			<offset>0</offset>
		</contact>
	</Contact>
	<LoadData>
		<load_controller id="1" name="LC1" type="loadcurve">
			<interpolate>LINEAR</interpolate>
			<extend>CONSTANT</extend>
			<points>
				<pt>0,0</pt>
				<pt>1,1</pt>
			</points>
		</load_controller>
	</LoadData>
	<Output>
		<plotfile type="febio">
			<var type="displacement"/>
			<var type="stress"/>
			<var type="relative volume"/>
			<var type="contact pressure"/>
			<var type="contact gap"/>
		</plotfile>
		<logfile>
			<node_data data="x;y;z"/>
		</logfile>
	</Output>
</febio_spec>
